/*--------------------------------*- C++ -*----------------------------------*\
  =========                 |
  \\      /  F ield         | OpenFOAM: The Open Source CFD Toolbox
   \\    /   O peration     | Website:  https://openfoam.org
    \\  /    A nd           | Version:  13
     \\/     M anipulation  |
\*---------------------------------------------------------------------------*/
FoamFile
{
    format      ascii;
    class       dictionary;
    location    "system";
    object      functions;
}
// * * * * * * * * * * * * * * * * * * * * * * * * * * * * * * * * * * * * * //


residuals
{
    type            residuals;
    libs            ("libutilityFunctionObjects.so");
    writeControl    timeStep;
    writeInterval   1;
    fields          (p U k omega);
}
/*yPlus1
{
    type            yPlus;
    libs            ("libfieldFunctionObjects.so");
    writeControl    writeTime;
    log             true;
}
turbulenceIntensity
{

    type        turbulenceIntensity;
    libs        ("libfieldFunctionObjects.so");
    
    writeControl writeTime;     // When to write results
    
    
    // Output options
    log         true;          // Write to log
    writeFields true;          // Write fields to disk
}*/
graphUniform
{
    type            sets;
    libs            ("libsampling.so");
    
    writeControl    timeStep;
    writeInterval   100;
    
    interpolationScheme cellPoint;
    
    setFormat       raw;
    
    sets
    {
        line
        {
            type            lineUniform;
            axis            z;
            start           (0 0 -0.8);
            end             (0 0 -4);
            nPoints         300;
        }
    }
    
    fields          (p);
}
/*fieldAverage1 //Added at 2s .
{
    type                fieldAverage;
    libs                ("libfieldFunctionObjects.so");

    writeControl        writeTime;
    

    restartOnRestart    false;
    restartOnOutput     false;
    periodicRestart     false;

    base                time;      // Use time instead of iteration
    window              0.441;            // Average over 10 times the oscillation time
    windowName          twoSecToTenOscillations;

    mean                yes;
    prime2Mean          no;
    log                 true;

    fields              (U p T rho nut);
   
}*/

// ************************************************************************* //
